/*--------------------------------*- C++ -*----------------------------------*\
| =========                 |                                                 |
| \\      /  F ield         | OpenFOAM: The Open Source CFD Toolbox           |
|  \\    /   O peration     | Version:  2.3.0                                 |
|   \\  /    A nd           | Web:      www.OpenFOAM.org                      |
|    \\/     M anipulation  |                                                 |
\*---------------------------------------------------------------------------*/
FoamFile
{
    version     2.0;
    format      ascii;
    class       volScalarField;
    location    "0";
    object      alphat;
}
// * * * * * * * * * * * * * * * * * * * * * * * * * * * * * * * * * * * * * //

dimensions      [1 -1 -1 0 0 0 0];

internalField   uniform 0;

boundaryField
{
    inlet
    {
        type            calculated;
        value           uniform 0;
    }

    outlet
    {
        type            fixedValue;
        value           uniform 0;
    }

    "(wall-diffuser-shroud|wall-inlet-shroud|wall-shroud)"
    {
        type            compressible::alphatWallFunction;
        U               Urel;
        Prt             0.85;
        value           uniform 0;
    }
    
    "(wall-diffuser-hub|wall-inlet-hub|wall-hub|wall-blade)"
    {
        type            compressible::alphatWallFunction;
        U               Urel;
        Prt             0.85;
        value           uniform 0;
    }

    "(rotor_cyclic_upper|rotor_cyclic_lower)"
    {
        type            cyclicGgi;
    }
}


// ************************************************************************* //
