/*--------------------------------*- C++ -*----------------------------------*\
| =========                 |                                                 |
| \\      /  F ield         | foam-extend: Open Source CFD                    |
|  \\    /   O peration     | Version:     3.1                                |
|   \\  /    A nd           | Web:         http://www.extend-project.de       |
|    \\/     M anipulation  |                                                 |
\*---------------------------------------------------------------------------*/
FoamFile
{
    version     2.0;
    format      ascii;
    class       volScalarField;
    location    "0";
    object      mut;
}
// * * * * * * * * * * * * * * * * * * * * * * * * * * * * * * * * * * * * * //

dimensions      [1 -1 -1 0 0 0 0];

internalField   uniform 0;

boundaryField
{
    wall-diffuser-hub
    {
        type            mutWallFunction;
        U               Urel;
        Cmu             0.09;
        kappa           0.41;
        E               9.8;
        value           uniform 0;
    }
    wall-diffuser-shroud
    {
        type            mutWallFunction;
        U               Urel;
        Cmu             0.09;
        kappa           0.41;
        E               9.8;
        value           uniform 0;
    }
    wall-inlet-hub
    {
        type            mutWallFunction;
        U               Urel;
        Cmu             0.09;
        kappa           0.41;
        E               9.8;
        value           uniform 0;
    }
    wall-inlet-shroud
    {
        type            mutWallFunction;
        U               Urel;
        Cmu             0.09;
        kappa           0.41;
        E               9.8;
        value           uniform 0;
    }
    wall-hub
    {
        type            mutWallFunction;
        U               Urel;
        Cmu             0.09;
        kappa           0.41;
        E               9.8;
        value           uniform 0;
    }
    wall-shroud
    {
        type            mutWallFunction;
        U               Urel;
        Cmu             0.09;
        kappa           0.41;
        E               9.8;
        value           uniform 0;
    }
    wall-blade
    {
        type            mutWallFunction;
        U               Urel;
        Cmu             0.09;
        kappa           0.41;
        E               9.8;
        value           uniform 0;
    }
    inlet
    {
        type            calculated;
        value           uniform 0;
    }
    outlet
    {
        type            calculated;
        value           uniform 0;
    }
    rotor_cyclic_lower
    {
        type            cyclicGgi;
        value           uniform 0;
    }
    rotor_cyclic_upper
    {
        type            cyclicGgi;
        value           uniform 0;
    }
}


// ************************************************************************* //
