/*--------------------------------*- C++ -*----------------------------------*\
| =========                 |                                                 |
| \\      /  F ield         | foam-extend: Open Source CFD                    |
|  \\    /   O peration     | Version:     3.1                                |
|   \\  /    A nd           | Web:         http://www.extend-project.de       |
|    \\/     M anipulation  |                                                 |
\*---------------------------------------------------------------------------*/
FoamFile
{
    version     2.0;
    format      ascii;
    class       volScalarField;
    location    "0";
    object      k;
}
// * * * * * * * * * * * * * * * * * * * * * * * * * * * * * * * * * * * * * //

dimensions      [0 2 -2 0 0 0 0];

internalField   uniform 0.135;

boundaryField
{
    inlet
    {
        type            fixedValue;
        value           uniform 0.135;
    }
    outlet
    {
        type            zeroGradient;
    }
    walls
    {
        type            compressible::kqRWallFunction;
        U               Urel;
        value           uniform 0.135;
    }
    topAndBottom
    {
        type            empty;
    }
}


// ************************************************************************* //
