/*--------------------------------*- C++ -*----------------------------------*\
| =========                 |                                                 |
| \\      /  F ield         | foam-extend: Open Source CFD                    |
|  \\    /   O peration     | Version:     3.1                                |
|   \\  /    A nd           | Web:         http://www.extend-project.de       |
|    \\/     M anipulation  |                                                 |
\*---------------------------------------------------------------------------*/
FoamFile
{
    version     2.0;
    format      ascii;
    class       volScalarField;
    location    "0";
    object      omega;
}
// * * * * * * * * * * * * * * * * * * * * * * * * * * * * * * * * * * * * * //

dimensions      [0 0 -1 0 0 0 0];

internalField   uniform 4.32;

boundaryField
{
    inlet
    {
        type            compressible::turbulentMixingLengthFrequencyInlet;
	U		Urel;
        mixingLength    0.09;
        phi             phi;
        k               k;
        value           uniform 4.32;
    }
    outlet
    {
        type            zeroGradient;
    }
    walls
    {
        type            compressible::omegaWallFunction;
        refValue        uniform 0;
        value           uniform 4.32;
	U		Urel;	
        Cmu             0.09;
        kappa           0.41;
        E               9.8;
        beta1           0.075;
    }
    topAndBottom
    {
        type            empty;
    }
}


// ************************************************************************* //
