/*--------------------------------*- C++ -*----------------------------------*\
| =========                 |                                                 |
| \\      /  F ield         | foam-extend: Open Source CFD                    |
|  \\    /   O peration     | Version:     3.1                                |
|   \\  /    A nd           | Web:         http://www.extend-project.de       |
|    \\/     M anipulation  |                                                 |
\*---------------------------------------------------------------------------*/
FoamFile
{
    version     2.0;
    format      ascii;
    class       dictionary;
    location    "system";
    object      controlDict;
}
// * * * * * * * * * * * * * * * * * * * * * * * * * * * * * * * * * * * * * //

application     SRFPisoCentralFoam;

startFrom       latestTime;

startTime       0;

stopAt          endTime;

endTime         2;

deltaT          1e-4;

writeControl    adjustableRunTime;

writeInterval   1e-3;

purgeWrite      100;

writeFormat     ascii;

writePrecision  6;

writeCompression uncompressed;

timeFormat      general;

timePrecision   6;

runTimeModifiable true;

adjustTimeStep  true;

maxCo           0.1;

maxDeltaT       1e-3;

CourantType	cellCourant;


functions
{
    minMaxP
    {
        type minMaxField;
        functionObjectLibs ("libfieldFunctionObjects.so");
        name p;
    }

    minMaxT
    {
        type minMaxField;
        functionObjectLibs ("libfieldFunctionObjects.so");
        name T;
    }

    minMaxRho
    {
        type minMaxField;
        functionObjectLibs ("libfieldFunctionObjects.so");
        name rho;
    }

    minMaxUabs
    {
        type minMaxField;
        functionObjectLibs ("libfieldFunctionObjects.so");
        name Uabs;
    }

    minMaxUrel
    {
        type minMaxField;
        functionObjectLibs ("libfieldFunctionObjects.so");
        name Urel;
    }
}

// ************************************************************************* //
