/*--------------------------------*- C++ -*----------------------------------*\
| =========                 |                                                 |
| \\      /  F ield         | OpenFOAM: The Open Source CFD Toolbox           |
|  \\    /   O peration     | Version:  2.3.0                                 |
|   \\  /    A nd           | Web:      www.OpenFOAM.org                      |
|    \\/     M anipulation  |                                                 |
\*---------------------------------------------------------------------------*/
FoamFile
{
    version     2.0;
    format      ascii;
    class       dictionary;
    location    "system";
    object      fvSchemes;
}
// * * * * * * * * * * * * * * * * * * * * * * * * * * * * * * * * * * * * * //

ddtSchemes
{
    default         Euler;
}

gradSchemes
{
    default         Gauss linear;
}

divSchemes
{
    default         none;

    div(U,p)   	    Gauss vanLeer;

    div((-devRhoReff&Urel))	  Gauss linear;
    div((muEff*dev2(grad(Urel).T()))) Gauss linear;
    
    //momentum equation
    div(phiNeg,Urel)	Gauss vanLeerV;
    div(phiPos,Urel)	Gauss vanLeerV;

    //energy equation
    div(phi,i)   	Gauss vanLeer;
    div(phiNeg,i)	Gauss vanLeer;
    div(phiPos,i)	Gauss vanLeer;

    //continuity equation
    div(phid_neg,p)	Gauss vanLeer;
    div(phid_pos,p)	Gauss vanLeer;
    
    div(phi,epsilon)    Gauss vanLeer;
    div(phi,omega)    Gauss vanLeer;
    div(phi,k)	        Gauss vanLeer;
}

laplacianSchemes
{
    default         Gauss linear corrected;
}

interpolationSchemes
{
    default         none;
    
    interpolate(rho)		linear;
    interpolate((rho*Urel))	linear;
    
    reconstruct(psi)		vanLeer;
    reconstruct(p)		vanLeer;
    reconstruct(Urel)		vanLeerV;
    reconstruct(U)		vanLeerV;
    reconstruct(Dp)		vanLeer;
}

snGradSchemes
{
    default         corrected;
}

fluxRequired
{
    default	none;
    p;
}

// ************************************************************************* //
