/*--------------------------------*- C++ -*----------------------------------*\
| =========                 |                                                 |
| \\      /  F ield         | foam-extend: Open Source CFD                    |
|  \\    /   O peration     | Version:     3.1                                |
|   \\  /    A nd           | Web:         http://www.extend-project.de       |
|    \\/     M anipulation  |                                                 |
\*---------------------------------------------------------------------------*/
FoamFile
{
    version     2.0;
    format      ascii;
    class       dictionary;
    object      decomposeParDict;
}
// * * * * * * * * * * * * * * * * * * * * * * * * * * * * * * * * * * * * * //

globalFaceZones
(
    rotor_cyclic_upper_faces
    rotor_cyclic_lower_faces
);  // Those are the names of the face zones created previously

numberOfSubdomains 4;

method          metis;

simpleCoeffs
{
    n               (2 2 1);
    delta           0.001;
}

hierarchicalCoeffs
{
    n               (1 1 1);
    delta           0.001;
    order           xyz;
}

metisCoeffs
{
    processorWeights
    (
        1
        1
        1
        1
    );
}

manualCoeffs
{
    dataFile        "";
}

distributed     no;

roots
(
);

// ************************************************************************* //

