/*--------------------------------*- C++ -*----------------------------------*\
| =========                 |                                                 |
| \\      /  F ield         | OpenFOAM: The Open Source CFD Toolbox           |
|  \\    /   O peration     | Version:  2.2.2                                 |
|   \\  /    A nd           | Web:      www.OpenFOAM.org                      |
|    \\/     M anipulation  |                                                 |
\*---------------------------------------------------------------------------*/
FoamFile
{
    version     2.0;
    format      ascii;
    class       dictionary;
    object      topoSetDict;
}
// * * * * * * * * * * * * * * * * * * * * * * * * * * * * * * * * * * * * * //

actions
(
    {
        name    rotor;
        type    cellSet;
        action  new;
	source cylinderToCell;
    	sourceInfo
    	{
       	p1       (0 0 -100); // start point on cylinder axis
       	p2       (0 0  100);   // end point on cylinder axis
       	radius   0.250;
    	}
    }
    {
        name    rotor;
        type    cellZoneSet;
        action  new;
	    // Select based on cellSet
	    source setToCellZone;
	    sourceInfo
	    {
		set rotor;           // name of cellSet
	    }
	}
);

// ************************************************************************* //
